data_image0
_cell_length_a       24.3584
_cell_length_b       23.8485
_cell_length_c       17.1987
_cell_angle_alpha    90
_cell_angle_beta     93.465
_cell_angle_gamma    90

_symmetry_space_group_name_H-M    "P 1"
_symmetry_int_tables_number       1

loop_
  _symmetry_equiv_pos_as_xyz
  'x, y, z'

loop_
  _atom_site_label
  _atom_site_occupancy
  _atom_site_fract_x
  _atom_site_fract_y
  _atom_site_fract_z
  _atom_site_thermal_displace_type
  _atom_site_B_iso_or_equiv
  _atom_site_type_symbol
  _atom_site_charge
  Zn1      1.0000 0.14194  0.06619  0.31002  Biso   1.000  Zn  0.994022
  O1       1.0000 0.24350  0.07150  0.20760  Biso   1.000  O  -0.544389
  O2       1.0000 0.19690  0.12000  0.29920  Biso   1.000  O  -0.541625
  O3       1.0000 0.06830  0.10180  0.29540  Biso   1.000  O  -0.539593
  O4       1.0000 0.02860  0.93700  0.19000  Biso   1.000  O  -0.543979
  O5       1.0000 0.14390  0.04630  0.42080  Biso   1.000  O  -0.543257
  O6       1.0000 0.36450  0.85000  0.70600  Biso   1.000  O  -0.304323
  O7       1.0000 0.41930  0.77640  0.71800  Biso   1.000  O  -0.325407
  O8       1.0000 0.39250  0.63130  0.89410  Biso   1.000  O  -0.297408
  O9       1.0000 0.33660  0.64250  0.99000  Biso   1.000  O  -0.271347
  O10      1.0000 0.51640  0.15540  0.82700  Biso   1.000  O  -0.318338
  O11      1.0000 0.48150  0.20530  0.92100  Biso   1.000  O  -0.335323
  O12      1.0000 0.35130  0.03540  0.76400  Biso   1.000  O  -0.219641
  N1       1.0000 0.23810  0.89060  0.83320  Biso   1.000  N  -0.092958
  N2       1.0000 0.27990  0.86290  0.79960  Biso   1.000  N  -0.169570
  H1       1.0000 0.29440  0.87910  0.75980  Biso   1.000  H  0.279841
  N3       1.0000 0.37720  0.80310  0.73180  Biso   1.000  N  0.521644
  N4       1.0000 0.35780  0.65680  0.93000  Biso   1.000  N  0.521852
  N5       1.0000 0.38070  0.16500  0.06410  Biso   1.000  N  -0.211071
  N6       1.0000 0.41220  0.16390  0.00000  Biso   1.000  N  -0.191876
  H2       1.0000 0.43580  0.19100  0.99240  Biso   1.000  H  0.288167
  N7       1.0000 0.48300  0.16390  0.87730  Biso   1.000  N  0.522162
  C1       1.0000 0.23040  0.11410  0.24690  Biso   1.000  C  0.612961
  C2       1.0000 0.27260  0.16040  0.24450  Biso   1.000  C  -0.020269
  C3       1.0000 0.27760  0.20040  0.30330  Biso   1.000  C  -0.109000
  H3       1.0000 0.25340  0.19970  0.34450  Biso   1.000  H  0.124155
  C4       1.0000 0.31810  0.24140  0.30170  Biso   1.000  C  -0.112702
  H4       1.0000 0.32150  0.26870  0.34190  Biso   1.000  H  0.124195
  C5       1.0000 0.35360  0.24240  0.24140  Biso   1.000  C  0.049959
  C6       1.0000 0.34850  0.20240  0.18260  Biso   1.000  C  0.059371
  C7       1.0000 0.30810  0.16140  0.18410  Biso   1.000  C  -0.139281
  H5       1.0000 0.30460  0.13410  0.14390  Biso   1.000  H  0.124556
  C8       1.0000 0.13840  0.99180  0.03770  Biso   1.000  C  0.318319
  C9       1.0000 0.09733  0.01855  0.90330  Biso   1.000  C  -0.121334
  H6       1.0000 0.06660  0.03420  0.92680  Biso   1.000  H  0.123293
  C10      1.0000 0.09710  0.01415  0.82270  Biso   1.000  C  -0.147948
  H7       1.0000 0.06620  0.02680  0.79110  Biso   1.000  H  0.124333
  C11      1.0000 0.14220  0.99120  0.78820  Biso   1.000  C  -0.042162
  C12      1.0000 0.18737  0.97270  0.83430  Biso   1.000  C  0.037450
  C13      1.0000 0.18760  0.97706  0.91490  Biso   1.000  C  -0.088817
  H8       1.0000 0.21850  0.96440  0.94650  Biso   1.000  H  0.124311
  C14      1.0000 0.03040  0.09850  0.24160  Biso   1.000  C  0.652239
  C15      1.0000 0.98640  0.13620  0.24600  Biso   1.000  C  -0.011557
  C16      1.0000 0.94650  0.13795  0.18460  Biso   1.000  C  -0.119105
  H9       1.0000 0.94770  0.11170  0.14320  Biso   1.000  H  0.124552
  C17      1.0000 0.90507  0.17802  0.18390  Biso   1.000  C  -0.113246
  H10      1.0000 0.87780  0.17920  0.14200  Biso   1.000  H  0.124333
  C18      1.0000 0.40344  0.28361  0.24460  Biso   1.000  C  0.079878
  C19      1.0000 0.44330  0.28530  0.30590  Biso   1.000  C  -0.109000
  H11      1.0000 0.44220  0.25910  0.34740  Biso   1.000  H  0.124606
  C20      1.0000 0.98470  0.17460  0.30660  Biso   1.000  C  -0.112702
  H12      1.0000 0.01200  0.17350  0.34850  Biso   1.000  H  0.124367
  C21      1.0000 0.14280  0.04890  0.58030  Biso   1.000  C  -0.106153
  H13      1.0000 0.14030  0.08330  0.55250  Biso   1.000  H  0.124211
  C22      1.0000 0.14322  0.04920  0.66020  Biso   1.000  C  -0.201390
  H14      1.0000 0.14210  0.08400  0.68710  Biso   1.000  H  0.121617
  C23      1.0000 0.22688  0.93432  0.79680  Biso   1.000  C  -0.124504
  H15      1.0000 0.24210  0.94290  0.74860  Biso   1.000  H  0.100469
  C24      1.0000 0.30160  0.81010  0.82380  Biso   1.000  C  0.124254
  C25      1.0000 0.34120  0.77790  0.78970  Biso   1.000  C  0.014774
  C26      1.0000 0.35960  0.72830  0.82460  Biso   1.000  C  -0.302710
  H16      1.0000 0.38660  0.70630  0.80130  Biso   1.000  H  0.127532
  C27      1.0000 0.33830  0.71077  0.89380  Biso   1.000  C  0.065472
  C28      1.0000 0.29870  0.74292  0.92800  Biso   1.000  C  -0.177368
  H17      1.0000 0.28420  0.73090  0.97520  Biso   1.000  H  0.124109
  C29      1.0000 0.28030  0.79255  0.89300  Biso   1.000  C  -0.177054
  H18      1.0000 0.25330  0.81450  0.91640  Biso   1.000  H  0.124109
  C30      1.0000 0.37846  0.20784  0.11140  Biso   1.000  C  -0.037467
  H19      1.0000 0.39600  0.24210  0.09970  Biso   1.000  H  0.101169
  C31      1.0000 0.40630  0.12050  0.94810  Biso   1.000  C  0.109236
  C32      1.0000 0.44060  0.11990  0.88600  Biso   1.000  C  0.025488
  C33      1.0000 0.43240  0.08070  0.82720  Biso   1.000  C  -0.290576
  H20      1.0000 0.45590  0.08030  0.78500  Biso   1.000  H  0.121524
  C34      1.0000 0.38990  0.04200  0.82950  Biso   1.000  C  0.252122
  C35      1.0000 0.35560  0.04250  0.89120  Biso   1.000  C  -0.129975
  H21      1.0000 0.32650  0.01600  0.89280  Biso   1.000  H  0.164966
  C36      1.0000 0.36370  0.08180  0.95050  Biso   1.000  C  -0.189556
  H22      1.0000 0.34030  0.08210  0.99260  Biso   1.000  H  0.123939
  Zn2      1.0000 0.64194  0.56619  0.31002  Biso   1.000  Zn  0.994022
  O13      1.0000 0.74350  0.57150  0.20760  Biso   1.000  O  -0.544389
  O14      1.0000 0.69690  0.62000  0.29920  Biso   1.000  O  -0.541625
  O15      1.0000 0.56830  0.60180  0.29540  Biso   1.000  O  -0.539593
  O16      1.0000 0.52860  0.43700  0.19000  Biso   1.000  O  -0.543979
  O17      1.0000 0.64390  0.54630  0.42080  Biso   1.000  O  -0.543257
  O18      1.0000 0.86450  0.35000  0.70600  Biso   1.000  O  -0.304323
  O19      1.0000 0.91930  0.27640  0.71800  Biso   1.000  O  -0.325407
  O20      1.0000 0.89250  0.13130  0.89410  Biso   1.000  O  -0.297408
  O21      1.0000 0.83660  0.14250  0.99000  Biso   1.000  O  -0.271347
  O22      1.0000 0.01640  0.65540  0.82700  Biso   1.000  O  -0.318338
  O23      1.0000 0.98150  0.70530  0.92100  Biso   1.000  O  -0.335323
  O24      1.0000 0.85130  0.53540  0.76400  Biso   1.000  O  -0.219641
  N8       1.0000 0.73810  0.39060  0.83320  Biso   1.000  N  -0.092958
  N9       1.0000 0.77990  0.36290  0.79960  Biso   1.000  N  -0.169570
  H23      1.0000 0.79440  0.37910  0.75980  Biso   1.000  H  0.279841
  N10      1.0000 0.87720  0.30310  0.73180  Biso   1.000  N  0.521644
  N11      1.0000 0.85780  0.15680  0.93000  Biso   1.000  N  0.521852
  N12      1.0000 0.88070  0.66500  0.06410  Biso   1.000  N  -0.211071
  N13      1.0000 0.91220  0.66390  0.00000  Biso   1.000  N  -0.191876
  H24      1.0000 0.93580  0.69100  0.99240  Biso   1.000  H  0.288167
  N14      1.0000 0.98300  0.66390  0.87730  Biso   1.000  N  0.522162
  C37      1.0000 0.73040  0.61410  0.24690  Biso   1.000  C  0.612961
  C38      1.0000 0.77260  0.66040  0.24450  Biso   1.000  C  -0.020269
  C39      1.0000 0.77760  0.70040  0.30330  Biso   1.000  C  -0.109000
  H25      1.0000 0.75340  0.69970  0.34450  Biso   1.000  H  0.124155
  C40      1.0000 0.81810  0.74140  0.30170  Biso   1.000  C  -0.112702
  H26      1.0000 0.82150  0.76870  0.34190  Biso   1.000  H  0.124195
  C41      1.0000 0.85360  0.74240  0.24140  Biso   1.000  C  0.049959
  C42      1.0000 0.84850  0.70240  0.18260  Biso   1.000  C  0.059371
  C43      1.0000 0.80810  0.66140  0.18410  Biso   1.000  C  -0.139281
  H27      1.0000 0.80460  0.63410  0.14390  Biso   1.000  H  0.124556
  C44      1.0000 0.63840  0.49180  0.03770  Biso   1.000  C  0.318319
  C45      1.0000 0.59733  0.51855  0.90330  Biso   1.000  C  -0.121334
  H28      1.0000 0.56660  0.53420  0.92680  Biso   1.000  H  0.123293
  C46      1.0000 0.59710  0.51415  0.82270  Biso   1.000  C  -0.147948
  H29      1.0000 0.56620  0.52680  0.79110  Biso   1.000  H  0.124333
  C47      1.0000 0.64220  0.49120  0.78820  Biso   1.000  C  -0.042162
  C48      1.0000 0.68737  0.47270  0.83430  Biso   1.000  C  0.037450
  C49      1.0000 0.68760  0.47706  0.91490  Biso   1.000  C  -0.088817
  H30      1.0000 0.71850  0.46440  0.94650  Biso   1.000  H  0.124311
  C50      1.0000 0.53040  0.59850  0.24160  Biso   1.000  C  0.652239
  C51      1.0000 0.48640  0.63620  0.24600  Biso   1.000  C  -0.011557
  C52      1.0000 0.44650  0.63795  0.18460  Biso   1.000  C  -0.119105
  H31      1.0000 0.44770  0.61170  0.14320  Biso   1.000  H  0.124552
  C53      1.0000 0.40507  0.67802  0.18390  Biso   1.000  C  -0.113246
  H32      1.0000 0.37780  0.67920  0.14200  Biso   1.000  H  0.124333
  C54      1.0000 0.90344  0.78361  0.24460  Biso   1.000  C  0.079878
  C55      1.0000 0.94330  0.78530  0.30590  Biso   1.000  C  -0.109000
  H33      1.0000 0.94220  0.75910  0.34740  Biso   1.000  H  0.124606
  C56      1.0000 0.48470  0.67460  0.30660  Biso   1.000  C  -0.112702
  H34      1.0000 0.51200  0.67350  0.34850  Biso   1.000  H  0.124367
  C57      1.0000 0.64280  0.54890  0.58030  Biso   1.000  C  -0.106153
  H35      1.0000 0.64030  0.58330  0.55250  Biso   1.000  H  0.124211
  C58      1.0000 0.64322  0.54920  0.66020  Biso   1.000  C  -0.201390
  H36      1.0000 0.64210  0.58400  0.68710  Biso   1.000  H  0.121617
  C59      1.0000 0.72688  0.43432  0.79680  Biso   1.000  C  -0.124504
  H37      1.0000 0.74210  0.44290  0.74860  Biso   1.000  H  0.100469
  C60      1.0000 0.80160  0.31010  0.82380  Biso   1.000  C  0.124254
  C61      1.0000 0.84120  0.27790  0.78970  Biso   1.000  C  0.014774
  C62      1.0000 0.85960  0.22830  0.82460  Biso   1.000  C  -0.302710
  H38      1.0000 0.88660  0.20630  0.80130  Biso   1.000  H  0.127532
  C63      1.0000 0.83830  0.21077  0.89380  Biso   1.000  C  0.065472
  C64      1.0000 0.79870  0.24292  0.92800  Biso   1.000  C  -0.177368
  H39      1.0000 0.78420  0.23090  0.97520  Biso   1.000  H  0.124109
  C65      1.0000 0.78030  0.29255  0.89300  Biso   1.000  C  -0.177054
  H40      1.0000 0.75330  0.31450  0.91640  Biso   1.000  H  0.124109
  C66      1.0000 0.87846  0.70784  0.11140  Biso   1.000  C  -0.037467
  H41      1.0000 0.89600  0.74210  0.09970  Biso   1.000  H  0.101169
  C67      1.0000 0.90630  0.62050  0.94810  Biso   1.000  C  0.109236
  C68      1.0000 0.94060  0.61990  0.88600  Biso   1.000  C  0.025488
  C69      1.0000 0.93240  0.58070  0.82720  Biso   1.000  C  -0.290576
  H42      1.0000 0.95590  0.58030  0.78500  Biso   1.000  H  0.121524
  C70      1.0000 0.88990  0.54200  0.82950  Biso   1.000  C  0.252122
  C71      1.0000 0.85560  0.54250  0.89120  Biso   1.000  C  -0.129975
  H43      1.0000 0.82650  0.51600  0.89280  Biso   1.000  H  0.164966
  C72      1.0000 0.86370  0.58180  0.95050  Biso   1.000  C  -0.189556
  H44      1.0000 0.84030  0.58210  0.99260  Biso   1.000  H  0.123939
  Zn3      1.0000 0.14194  0.93381  0.31002  Biso   1.000  Zn  0.994022
  O25      1.0000 0.24350  0.92850  0.20760  Biso   1.000  O  -0.544389
  O26      1.0000 0.19690  0.88000  0.29920  Biso   1.000  O  -0.541625
  O27      1.0000 0.06830  0.89820  0.29540  Biso   1.000  O  -0.539593
  O28      1.0000 0.02860  0.06300  0.19000  Biso   1.000  O  -0.543979
  O29      1.0000 0.14390  0.95370  0.42080  Biso   1.000  O  -0.543257
  O30      1.0000 0.36450  0.15000  0.70600  Biso   1.000  O  -0.304323
  O31      1.0000 0.41930  0.22360  0.71800  Biso   1.000  O  -0.325407
  O32      1.0000 0.39250  0.36870  0.89410  Biso   1.000  O  -0.297408
  O33      1.0000 0.33660  0.35750  0.99000  Biso   1.000  O  -0.271347
  O34      1.0000 0.51640  0.84460  0.82700  Biso   1.000  O  -0.318338
  O35      1.0000 0.48150  0.79470  0.92100  Biso   1.000  O  -0.335323
  O36      1.0000 0.35130  0.96460  0.76400  Biso   1.000  O  -0.219641
  N15      1.0000 0.23810  0.10940  0.83320  Biso   1.000  N  -0.092958
  N16      1.0000 0.27990  0.13710  0.79960  Biso   1.000  N  -0.169570
  H45      1.0000 0.29440  0.12090  0.75980  Biso   1.000  H  0.279841
  N17      1.0000 0.37720  0.19690  0.73180  Biso   1.000  N  0.521644
  N18      1.0000 0.35780  0.34320  0.93000  Biso   1.000  N  0.521852
  N19      1.0000 0.38070  0.83500  0.06410  Biso   1.000  N  -0.211071
  N20      1.0000 0.41220  0.83610  0.00000  Biso   1.000  N  -0.191876
  H46      1.0000 0.43580  0.80900  0.99240  Biso   1.000  H  0.288167
  N21      1.0000 0.48300  0.83610  0.87730  Biso   1.000  N  0.522162
  C73      1.0000 0.23040  0.88590  0.24690  Biso   1.000  C  0.612961
  C74      1.0000 0.27260  0.83960  0.24450  Biso   1.000  C  -0.020269
  C75      1.0000 0.27760  0.79960  0.30330  Biso   1.000  C  -0.109000
  H47      1.0000 0.25340  0.80030  0.34450  Biso   1.000  H  0.124155
  C76      1.0000 0.31810  0.75860  0.30170  Biso   1.000  C  -0.112702
  H48      1.0000 0.32150  0.73130  0.34190  Biso   1.000  H  0.124195
  C77      1.0000 0.35360  0.75760  0.24140  Biso   1.000  C  0.049959
  C78      1.0000 0.34850  0.79760  0.18260  Biso   1.000  C  0.059371
  C79      1.0000 0.30810  0.83860  0.18410  Biso   1.000  C  -0.139281
  H49      1.0000 0.30460  0.86590  0.14390  Biso   1.000  H  0.124556
  C80      1.0000 0.13840  0.00820  0.03770  Biso   1.000  C  0.318319
  C81      1.0000 0.09733  0.98145  0.90330  Biso   1.000  C  -0.121334
  H50      1.0000 0.06660  0.96580  0.92680  Biso   1.000  H  0.123293
  C82      1.0000 0.09710  0.98585  0.82270  Biso   1.000  C  -0.147948
  H51      1.0000 0.06620  0.97320  0.79110  Biso   1.000  H  0.124333
  C83      1.0000 0.14220  0.00880  0.78820  Biso   1.000  C  -0.042162
  C84      1.0000 0.18737  0.02730  0.83430  Biso   1.000  C  0.037450
  C85      1.0000 0.18760  0.02294  0.91490  Biso   1.000  C  -0.088817
  H52      1.0000 0.21850  0.03560  0.94650  Biso   1.000  H  0.124311
  C86      1.0000 0.03040  0.90150  0.24160  Biso   1.000  C  0.652239
  C87      1.0000 0.98640  0.86380  0.24600  Biso   1.000  C  -0.011557
  C88      1.0000 0.94650  0.86205  0.18460  Biso   1.000  C  -0.119105
  H53      1.0000 0.94770  0.88830  0.14320  Biso   1.000  H  0.124552
  C89      1.0000 0.90507  0.82198  0.18390  Biso   1.000  C  -0.113246
  H54      1.0000 0.87780  0.82080  0.14200  Biso   1.000  H  0.124333
  C90      1.0000 0.40344  0.71639  0.24460  Biso   1.000  C  0.079878
  C91      1.0000 0.44330  0.71470  0.30590  Biso   1.000  C  -0.109000
  H55      1.0000 0.44220  0.74090  0.34740  Biso   1.000  H  0.124606
  C92      1.0000 0.98470  0.82540  0.30660  Biso   1.000  C  -0.112702
  H56      1.0000 0.01200  0.82650  0.34850  Biso   1.000  H  0.124367
  C93      1.0000 0.14280  0.95110  0.58030  Biso   1.000  C  -0.106153
  H57      1.0000 0.14030  0.91670  0.55250  Biso   1.000  H  0.124211
  C94      1.0000 0.14322  0.95080  0.66020  Biso   1.000  C  -0.201390
  H58      1.0000 0.14210  0.91600  0.68710  Biso   1.000  H  0.121617
  C95      1.0000 0.22688  0.06568  0.79680  Biso   1.000  C  -0.124504
  H59      1.0000 0.24210  0.05710  0.74860  Biso   1.000  H  0.100469
  C96      1.0000 0.30160  0.18990  0.82380  Biso   1.000  C  0.124254
  C97      1.0000 0.34120  0.22210  0.78970  Biso   1.000  C  0.014774
  C98      1.0000 0.35960  0.27170  0.82460  Biso   1.000  C  -0.302710
  H60      1.0000 0.38660  0.29370  0.80130  Biso   1.000  H  0.127532
  C99      1.0000 0.33830  0.28923  0.89380  Biso   1.000  C  0.065472
  C100     1.0000 0.29870  0.25708  0.92800  Biso   1.000  C  -0.177368
  H61      1.0000 0.28420  0.26910  0.97520  Biso   1.000  H  0.124109
  C101     1.0000 0.28030  0.20745  0.89300  Biso   1.000  C  -0.177054
  H62      1.0000 0.25330  0.18550  0.91640  Biso   1.000  H  0.124109
  C102     1.0000 0.37846  0.79216  0.11140  Biso   1.000  C  -0.037467
  H63      1.0000 0.39600  0.75790  0.09970  Biso   1.000  H  0.101169
  C103     1.0000 0.40630  0.87950  0.94810  Biso   1.000  C  0.109236
  C104     1.0000 0.44060  0.88010  0.88600  Biso   1.000  C  0.025488
  C105     1.0000 0.43240  0.91930  0.82720  Biso   1.000  C  -0.290576
  H64      1.0000 0.45590  0.91970  0.78500  Biso   1.000  H  0.121524
  C106     1.0000 0.38990  0.95800  0.82950  Biso   1.000  C  0.252122
  C107     1.0000 0.35560  0.95750  0.89120  Biso   1.000  C  -0.129975
  H65      1.0000 0.32650  0.98400  0.89280  Biso   1.000  H  0.164966
  C108     1.0000 0.36370  0.91820  0.95050  Biso   1.000  C  -0.189556
  H66      1.0000 0.34030  0.91790  0.99260  Biso   1.000  H  0.123939
  Zn4      1.0000 0.64194  0.43381  0.31002  Biso   1.000  Zn  0.994022
  O37      1.0000 0.74350  0.42850  0.20760  Biso   1.000  O  -0.544389
  O38      1.0000 0.69690  0.38000  0.29920  Biso   1.000  O  -0.541625
  O39      1.0000 0.56830  0.39820  0.29540  Biso   1.000  O  -0.539593
  O40      1.0000 0.52860  0.56300  0.19000  Biso   1.000  O  -0.543979
  O41      1.0000 0.64390  0.45370  0.42080  Biso   1.000  O  -0.543257
  O42      1.0000 0.86450  0.65000  0.70600  Biso   1.000  O  -0.304323
  O43      1.0000 0.91930  0.72360  0.71800  Biso   1.000  O  -0.325407
  O44      1.0000 0.89250  0.86870  0.89410  Biso   1.000  O  -0.297408
  O45      1.0000 0.83660  0.85750  0.99000  Biso   1.000  O  -0.271347
  O46      1.0000 0.01640  0.34460  0.82700  Biso   1.000  O  -0.318338
  O47      1.0000 0.98150  0.29470  0.92100  Biso   1.000  O  -0.335323
  O48      1.0000 0.85130  0.46460  0.76400  Biso   1.000  O  -0.219641
  N22      1.0000 0.73810  0.60940  0.83320  Biso   1.000  N  -0.092958
  N23      1.0000 0.77990  0.63710  0.79960  Biso   1.000  N  -0.169570
  H67      1.0000 0.79440  0.62090  0.75980  Biso   1.000  H  0.279841
  N24      1.0000 0.87720  0.69690  0.73180  Biso   1.000  N  0.521644
  N25      1.0000 0.85780  0.84320  0.93000  Biso   1.000  N  0.521852
  N26      1.0000 0.88070  0.33500  0.06410  Biso   1.000  N  -0.211071
  N27      1.0000 0.91220  0.33610  0.00000  Biso   1.000  N  -0.191876
  H68      1.0000 0.93580  0.30900  0.99240  Biso   1.000  H  0.288167
  N28      1.0000 0.98300  0.33610  0.87730  Biso   1.000  N  0.522162
  C109     1.0000 0.73040  0.38590  0.24690  Biso   1.000  C  0.612961
  C110     1.0000 0.77260  0.33960  0.24450  Biso   1.000  C  -0.020269
  C111     1.0000 0.77760  0.29960  0.30330  Biso   1.000  C  -0.109000
  H69      1.0000 0.75340  0.30030  0.34450  Biso   1.000  H  0.124155
  C112     1.0000 0.81810  0.25860  0.30170  Biso   1.000  C  -0.112702
  H70      1.0000 0.82150  0.23130  0.34190  Biso   1.000  H  0.124195
  C113     1.0000 0.85360  0.25760  0.24140  Biso   1.000  C  0.049959
  C114     1.0000 0.84850  0.29760  0.18260  Biso   1.000  C  0.059371
  C115     1.0000 0.80810  0.33860  0.18410  Biso   1.000  C  -0.139281
  H71      1.0000 0.80460  0.36590  0.14390  Biso   1.000  H  0.124556
  C116     1.0000 0.63840  0.50820  0.03770  Biso   1.000  C  0.318319
  C117     1.0000 0.59733  0.48145  0.90330  Biso   1.000  C  -0.121334
  H72      1.0000 0.56660  0.46580  0.92680  Biso   1.000  H  0.123293
  C118     1.0000 0.59710  0.48585  0.82270  Biso   1.000  C  -0.147948
  H73      1.0000 0.56620  0.47320  0.79110  Biso   1.000  H  0.124333
  C119     1.0000 0.64220  0.50880  0.78820  Biso   1.000  C  -0.042162
  C120     1.0000 0.68737  0.52730  0.83430  Biso   1.000  C  0.037450
  C121     1.0000 0.68760  0.52294  0.91490  Biso   1.000  C  -0.088817
  H74      1.0000 0.71850  0.53560  0.94650  Biso   1.000  H  0.124311
  C122     1.0000 0.53040  0.40150  0.24160  Biso   1.000  C  0.652239
  C123     1.0000 0.48640  0.36380  0.24600  Biso   1.000  C  -0.011557
  C124     1.0000 0.44650  0.36205  0.18460  Biso   1.000  C  -0.119105
  H75      1.0000 0.44770  0.38830  0.14320  Biso   1.000  H  0.124552
  C125     1.0000 0.40507  0.32198  0.18390  Biso   1.000  C  -0.113246
  H76      1.0000 0.37780  0.32080  0.14200  Biso   1.000  H  0.124333
  C126     1.0000 0.90344  0.21639  0.24460  Biso   1.000  C  0.079878
  C127     1.0000 0.94330  0.21470  0.30590  Biso   1.000  C  -0.109000
  H77      1.0000 0.94220  0.24090  0.34740  Biso   1.000  H  0.124606
  C128     1.0000 0.48470  0.32540  0.30660  Biso   1.000  C  -0.112702
  H78      1.0000 0.51200  0.32650  0.34850  Biso   1.000  H  0.124367
  C129     1.0000 0.64280  0.45110  0.58030  Biso   1.000  C  -0.106153
  H79      1.0000 0.64030  0.41670  0.55250  Biso   1.000  H  0.124211
  C130     1.0000 0.64322  0.45080  0.66020  Biso   1.000  C  -0.201390
  H80      1.0000 0.64210  0.41600  0.68710  Biso   1.000  H  0.121617
  C131     1.0000 0.72688  0.56568  0.79680  Biso   1.000  C  -0.124504
  H81      1.0000 0.74210  0.55710  0.74860  Biso   1.000  H  0.100469
  C132     1.0000 0.80160  0.68990  0.82380  Biso   1.000  C  0.124254
  C133     1.0000 0.84120  0.72210  0.78970  Biso   1.000  C  0.014774
  C134     1.0000 0.85960  0.77170  0.82460  Biso   1.000  C  -0.302710
  H82      1.0000 0.88660  0.79370  0.80130  Biso   1.000  H  0.127532
  C135     1.0000 0.83830  0.78923  0.89380  Biso   1.000  C  0.065472
  C136     1.0000 0.79870  0.75708  0.92800  Biso   1.000  C  -0.177368
  H83      1.0000 0.78420  0.76910  0.97520  Biso   1.000  H  0.124109
  C137     1.0000 0.78030  0.70745  0.89300  Biso   1.000  C  -0.177054
  H84      1.0000 0.75330  0.68550  0.91640  Biso   1.000  H  0.124109
  C138     1.0000 0.87846  0.29216  0.11140  Biso   1.000  C  -0.037467
  H85      1.0000 0.89600  0.25790  0.09970  Biso   1.000  H  0.101169
  C139     1.0000 0.90630  0.37950  0.94810  Biso   1.000  C  0.109236
  C140     1.0000 0.94060  0.38010  0.88600  Biso   1.000  C  0.025488
  C141     1.0000 0.93240  0.41930  0.82720  Biso   1.000  C  -0.290576
  H86      1.0000 0.95590  0.41970  0.78500  Biso   1.000  H  0.121524
  C142     1.0000 0.88990  0.45800  0.82950  Biso   1.000  C  0.252122
  C143     1.0000 0.85560  0.45750  0.89120  Biso   1.000  C  -0.129975
  H87      1.0000 0.82650  0.48400  0.89280  Biso   1.000  H  0.164966
  C144     1.0000 0.86370  0.41820  0.95050  Biso   1.000  C  -0.189556
  H88      1.0000 0.84030  0.41790  0.99260  Biso   1.000  H  0.123939
  Zn5      1.0000 0.07869  0.00000  0.17430  Biso   1.000  Zn  1.005365
  Zn6      1.0000 0.20859  0.00000  0.18591  Biso   1.000  Zn  1.032966
  O49      1.0000 0.14280  0.00000  0.24560  Biso   1.000  O  -1.003084
  O50      1.0000 0.09180  0.00000  0.06360  Biso   1.000  O  -0.365903
  O51      1.0000 0.18370  0.00000  0.07620  Biso   1.000  O  -0.365307
  O52      1.0000 0.42830  0.00000  0.72270  Biso   1.000  O  -0.307612
  N29      1.0000 0.38890  0.00000  0.76480  Biso   1.000  N  0.200105
  C145     1.0000 0.14250  0.00000  0.94940  Biso   1.000  C  -0.006149
  C146     1.0000 0.14310  0.00000  0.45280  Biso   1.000  C  0.623240
  C147     1.0000 0.14600  0.00000  0.54080  Biso   1.000  C  -0.012034
  C148     1.0000 0.14523  0.00000  0.70190  Biso   1.000  C  0.055267
  Zn7      1.0000 0.57869  0.50000  0.17430  Biso   1.000  Zn  1.005365
  Zn8      1.0000 0.70859  0.50000  0.18591  Biso   1.000  Zn  1.032966
  O53      1.0000 0.64280  0.50000  0.24560  Biso   1.000  O  -1.003084
  O54      1.0000 0.59180  0.50000  0.06360  Biso   1.000  O  -0.365903
  O55      1.0000 0.68370  0.50000  0.07620  Biso   1.000  O  -0.365307
  O56      1.0000 0.92830  0.50000  0.72270  Biso   1.000  O  -0.307612
  N30      1.0000 0.88890  0.50000  0.76480  Biso   1.000  N  0.200105
  C149     1.0000 0.64250  0.50000  0.94940  Biso   1.000  C  -0.006149
  C150     1.0000 0.64310  0.50000  0.45280  Biso   1.000  C  0.623240
  C151     1.0000 0.64600  0.50000  0.54080  Biso   1.000  C  -0.012034
  C152     1.0000 0.64523  0.50000  0.70190  Biso   1.000  C  0.055267
  Zn9      1.0000 0.85806  0.06619  0.68998  Biso   1.000  Zn  0.994022
  O57      1.0000 0.75650  0.07150  0.79240  Biso   1.000  O  -0.544389
  O58      1.0000 0.80310  0.12000  0.70080  Biso   1.000  O  -0.541625
  O59      1.0000 0.93170  0.10180  0.70460  Biso   1.000  O  -0.539593
  O60      1.0000 0.97140  0.93700  0.81000  Biso   1.000  O  -0.543979
  O61      1.0000 0.85610  0.04630  0.57920  Biso   1.000  O  -0.543257
  O62      1.0000 0.63550  0.85000  0.29400  Biso   1.000  O  -0.304323
  O63      1.0000 0.58070  0.77640  0.28200  Biso   1.000  O  -0.325407
  O64      1.0000 0.60750  0.63130  0.10590  Biso   1.000  O  -0.297408
  O65      1.0000 0.66340  0.64250  0.01000  Biso   1.000  O  -0.271347
  O66      1.0000 0.48360  0.15540  0.17300  Biso   1.000  O  -0.318338
  O67      1.0000 0.51850  0.20530  0.07900  Biso   1.000  O  -0.335323
  O68      1.0000 0.64870  0.03540  0.23600  Biso   1.000  O  -0.219641
  N31      1.0000 0.76190  0.89060  0.16680  Biso   1.000  N  -0.092958
  N32      1.0000 0.72010  0.86290  0.20040  Biso   1.000  N  -0.169570
  H89      1.0000 0.70560  0.87910  0.24020  Biso   1.000  H  0.279841
  N33      1.0000 0.62280  0.80310  0.26820  Biso   1.000  N  0.521644
  N34      1.0000 0.64220  0.65680  0.07000  Biso   1.000  N  0.521852
  N35      1.0000 0.61930  0.16500  0.93590  Biso   1.000  N  -0.211071
  N36      1.0000 0.58780  0.16390  0.00000  Biso   1.000  N  -0.191876
  H90      1.0000 0.56420  0.19100  0.00760  Biso   1.000  H  0.288167
  N37      1.0000 0.51700  0.16390  0.12270  Biso   1.000  N  0.522162
  C153     1.0000 0.76960  0.11410  0.75310  Biso   1.000  C  0.612961
  C154     1.0000 0.72740  0.16040  0.75550  Biso   1.000  C  -0.020269
  C155     1.0000 0.72240  0.20040  0.69670  Biso   1.000  C  -0.109000
  H91      1.0000 0.74660  0.19970  0.65550  Biso   1.000  H  0.124155
  C156     1.0000 0.68190  0.24140  0.69830  Biso   1.000  C  -0.112702
  H92      1.0000 0.67850  0.26870  0.65810  Biso   1.000  H  0.124195
  C157     1.0000 0.64640  0.24240  0.75860  Biso   1.000  C  0.049959
  C158     1.0000 0.65150  0.20240  0.81740  Biso   1.000  C  0.059371
  C159     1.0000 0.69190  0.16140  0.81590  Biso   1.000  C  -0.139281
  H93      1.0000 0.69540  0.13410  0.85610  Biso   1.000  H  0.124556
  C160     1.0000 0.86160  0.99180  0.96230  Biso   1.000  C  0.318319
  C161     1.0000 0.90267  0.01855  0.09670  Biso   1.000  C  -0.121334
  H94      1.0000 0.93340  0.03420  0.07320  Biso   1.000  H  0.123293
  C162     1.0000 0.90290  0.01415  0.17730  Biso   1.000  C  -0.147948
  H95      1.0000 0.93380  0.02680  0.20890  Biso   1.000  H  0.124333
  C163     1.0000 0.85780  0.99120  0.21180  Biso   1.000  C  -0.042162
  C164     1.0000 0.81263  0.97270  0.16570  Biso   1.000  C  0.037450
  C165     1.0000 0.81240  0.97706  0.08510  Biso   1.000  C  -0.088817
  H96      1.0000 0.78150  0.96440  0.05350  Biso   1.000  H  0.124311
  C166     1.0000 0.96960  0.09850  0.75840  Biso   1.000  C  0.652239
  C167     1.0000 0.01360  0.13620  0.75400  Biso   1.000  C  -0.011557
  C168     1.0000 0.05350  0.13795  0.81540  Biso   1.000  C  -0.119105
  H97      1.0000 0.05230  0.11170  0.85680  Biso   1.000  H  0.124552
  C169     1.0000 0.09493  0.17802  0.81610  Biso   1.000  C  -0.113246
  H98      1.0000 0.12220  0.17920  0.85800  Biso   1.000  H  0.124333
  C170     1.0000 0.59656  0.28361  0.75540  Biso   1.000  C  0.079878
  C171     1.0000 0.55670  0.28530  0.69410  Biso   1.000  C  -0.109000
  H99      1.0000 0.55780  0.25910  0.65260  Biso   1.000  H  0.124606
  C172     1.0000 0.01530  0.17460  0.69340  Biso   1.000  C  -0.112702
  H100     1.0000 0.98800  0.17350  0.65150  Biso   1.000  H  0.124367
  C173     1.0000 0.85720  0.04890  0.41970  Biso   1.000  C  -0.106153
  H101     1.0000 0.85970  0.08330  0.44750  Biso   1.000  H  0.124211
  C174     1.0000 0.85678  0.04920  0.33980  Biso   1.000  C  -0.201390
  H102     1.0000 0.85790  0.08400  0.31290  Biso   1.000  H  0.121617
  C175     1.0000 0.77312  0.93432  0.20320  Biso   1.000  C  -0.124504
  H103     1.0000 0.75790  0.94290  0.25140  Biso   1.000  H  0.100469
  C176     1.0000 0.69840  0.81010  0.17620  Biso   1.000  C  0.124254
  C177     1.0000 0.65880  0.77790  0.21030  Biso   1.000  C  0.014774
  C178     1.0000 0.64040  0.72830  0.17540  Biso   1.000  C  -0.302710
  H104     1.0000 0.61340  0.70630  0.19870  Biso   1.000  H  0.127532
  C179     1.0000 0.66170  0.71077  0.10620  Biso   1.000  C  0.065472
  C180     1.0000 0.70130  0.74292  0.07200  Biso   1.000  C  -0.177368
  H105     1.0000 0.71580  0.73090  0.02480  Biso   1.000  H  0.124109
  C181     1.0000 0.71970  0.79255  0.10700  Biso   1.000  C  -0.177054
  H106     1.0000 0.74670  0.81450  0.08360  Biso   1.000  H  0.124109
  C182     1.0000 0.62154  0.20784  0.88860  Biso   1.000  C  -0.037467
  H107     1.0000 0.60400  0.24210  0.90030  Biso   1.000  H  0.101169
  C183     1.0000 0.59370  0.12050  0.05190  Biso   1.000  C  0.109236
  C184     1.0000 0.55940  0.11990  0.11400  Biso   1.000  C  0.025488
  C185     1.0000 0.56760  0.08070  0.17280  Biso   1.000  C  -0.290576
  H108     1.0000 0.54410  0.08030  0.21500  Biso   1.000  H  0.121524
  C186     1.0000 0.61010  0.04200  0.17050  Biso   1.000  C  0.252122
  C187     1.0000 0.64440  0.04250  0.10880  Biso   1.000  C  -0.129975
  H109     1.0000 0.67350  0.01600  0.10720  Biso   1.000  H  0.164966
  C188     1.0000 0.63630  0.08180  0.04950  Biso   1.000  C  -0.189556
  H110     1.0000 0.65970  0.08210  0.00740  Biso   1.000  H  0.123939
  Zn10     1.0000 0.35806  0.56619  0.68998  Biso   1.000  Zn  0.994022
  O69      1.0000 0.25650  0.57150  0.79240  Biso   1.000  O  -0.544389
  O70      1.0000 0.30310  0.62000  0.70080  Biso   1.000  O  -0.541625
  O71      1.0000 0.43170  0.60180  0.70460  Biso   1.000  O  -0.539593
  O72      1.0000 0.47140  0.43700  0.81000  Biso   1.000  O  -0.543979
  O73      1.0000 0.35610  0.54630  0.57920  Biso   1.000  O  -0.543257
  O74      1.0000 0.13550  0.35000  0.29400  Biso   1.000  O  -0.304323
  O75      1.0000 0.08070  0.27640  0.28200  Biso   1.000  O  -0.325407
  O76      1.0000 0.10750  0.13130  0.10590  Biso   1.000  O  -0.297408
  O77      1.0000 0.16340  0.14250  0.01000  Biso   1.000  O  -0.271347
  O78      1.0000 0.98360  0.65540  0.17300  Biso   1.000  O  -0.318338
  O79      1.0000 0.01850  0.70530  0.07900  Biso   1.000  O  -0.335323
  O80      1.0000 0.14870  0.53540  0.23600  Biso   1.000  O  -0.219641
  N38      1.0000 0.26190  0.39060  0.16680  Biso   1.000  N  -0.092958
  N39      1.0000 0.22010  0.36290  0.20040  Biso   1.000  N  -0.169570
  H111     1.0000 0.20560  0.37910  0.24020  Biso   1.000  H  0.279841
  N40      1.0000 0.12280  0.30310  0.26820  Biso   1.000  N  0.521644
  N41      1.0000 0.14220  0.15680  0.07000  Biso   1.000  N  0.521852
  N42      1.0000 0.11930  0.66500  0.93590  Biso   1.000  N  -0.211071
  N43      1.0000 0.08780  0.66390  0.00000  Biso   1.000  N  -0.191876
  H112     1.0000 0.06420  0.69100  0.00760  Biso   1.000  H  0.288167
  N44      1.0000 0.01700  0.66390  0.12270  Biso   1.000  N  0.522162
  C189     1.0000 0.26960  0.61410  0.75310  Biso   1.000  C  0.612961
  C190     1.0000 0.22740  0.66040  0.75550  Biso   1.000  C  -0.020269
  C191     1.0000 0.22240  0.70040  0.69670  Biso   1.000  C  -0.109000
  H113     1.0000 0.24660  0.69970  0.65550  Biso   1.000  H  0.124155
  C192     1.0000 0.18190  0.74140  0.69830  Biso   1.000  C  -0.112702
  H114     1.0000 0.17850  0.76870  0.65810  Biso   1.000  H  0.124195
  C193     1.0000 0.14640  0.74240  0.75860  Biso   1.000  C  0.049959
  C194     1.0000 0.15150  0.70240  0.81740  Biso   1.000  C  0.059371
  C195     1.0000 0.19190  0.66140  0.81590  Biso   1.000  C  -0.139281
  H115     1.0000 0.19540  0.63410  0.85610  Biso   1.000  H  0.124556
  C196     1.0000 0.36160  0.49180  0.96230  Biso   1.000  C  0.318319
  C197     1.0000 0.40267  0.51855  0.09670  Biso   1.000  C  -0.121334
  H116     1.0000 0.43340  0.53420  0.07320  Biso   1.000  H  0.123293
  C198     1.0000 0.40290  0.51415  0.17730  Biso   1.000  C  -0.147948
  H117     1.0000 0.43380  0.52680  0.20890  Biso   1.000  H  0.124333
  C199     1.0000 0.35780  0.49120  0.21180  Biso   1.000  C  -0.042162
  C200     1.0000 0.31263  0.47270  0.16570  Biso   1.000  C  0.037450
  C201     1.0000 0.31240  0.47706  0.08510  Biso   1.000  C  -0.088817
  H118     1.0000 0.28150  0.46440  0.05350  Biso   1.000  H  0.124311
  C202     1.0000 0.46960  0.59850  0.75840  Biso   1.000  C  0.652239
  C203     1.0000 0.51360  0.63620  0.75400  Biso   1.000  C  -0.011557
  C204     1.0000 0.55350  0.63795  0.81540  Biso   1.000  C  -0.119105
  H119     1.0000 0.55230  0.61170  0.85680  Biso   1.000  H  0.124552
  C205     1.0000 0.59493  0.67802  0.81610  Biso   1.000  C  -0.113246
  H120     1.0000 0.62220  0.67920  0.85800  Biso   1.000  H  0.124333
  C206     1.0000 0.09656  0.78361  0.75540  Biso   1.000  C  0.079878
  C207     1.0000 0.05670  0.78530  0.69410  Biso   1.000  C  -0.109000
  H121     1.0000 0.05780  0.75910  0.65260  Biso   1.000  H  0.124606
  C208     1.0000 0.51530  0.67460  0.69340  Biso   1.000  C  -0.112702
  H122     1.0000 0.48800  0.67350  0.65150  Biso   1.000  H  0.124367
  C209     1.0000 0.35720  0.54890  0.41970  Biso   1.000  C  -0.106153
  H123     1.0000 0.35970  0.58330  0.44750  Biso   1.000  H  0.124211
  C210     1.0000 0.35678  0.54920  0.33980  Biso   1.000  C  -0.201390
  H124     1.0000 0.35790  0.58400  0.31290  Biso   1.000  H  0.121617
  C211     1.0000 0.27312  0.43432  0.20320  Biso   1.000  C  -0.124504
  H125     1.0000 0.25790  0.44290  0.25140  Biso   1.000  H  0.100469
  C212     1.0000 0.19840  0.31010  0.17620  Biso   1.000  C  0.124254
  C213     1.0000 0.15880  0.27790  0.21030  Biso   1.000  C  0.014774
  C214     1.0000 0.14040  0.22830  0.17540  Biso   1.000  C  -0.302710
  H126     1.0000 0.11340  0.20630  0.19870  Biso   1.000  H  0.127532
  C215     1.0000 0.16170  0.21077  0.10620  Biso   1.000  C  0.065472
  C216     1.0000 0.20130  0.24292  0.07200  Biso   1.000  C  -0.177368
  H127     1.0000 0.21580  0.23090  0.02480  Biso   1.000  H  0.124109
  C217     1.0000 0.21970  0.29255  0.10700  Biso   1.000  C  -0.177054
  H128     1.0000 0.24670  0.31450  0.08360  Biso   1.000  H  0.124109
  C218     1.0000 0.12154  0.70784  0.88860  Biso   1.000  C  -0.037467
  H129     1.0000 0.10400  0.74210  0.90030  Biso   1.000  H  0.101169
  C219     1.0000 0.09370  0.62050  0.05190  Biso   1.000  C  0.109236
  C220     1.0000 0.05940  0.61990  0.11400  Biso   1.000  C  0.025488
  C221     1.0000 0.06760  0.58070  0.17280  Biso   1.000  C  -0.290576
  H130     1.0000 0.04410  0.58030  0.21500  Biso   1.000  H  0.121524
  C222     1.0000 0.11010  0.54200  0.17050  Biso   1.000  C  0.252122
  C223     1.0000 0.14440  0.54250  0.10880  Biso   1.000  C  -0.129975
  H131     1.0000 0.17350  0.51600  0.10720  Biso   1.000  H  0.164966
  C224     1.0000 0.13630  0.58180  0.04950  Biso   1.000  C  -0.189556
  H132     1.0000 0.15970  0.58210  0.00740  Biso   1.000  H  0.123939
  Zn11     1.0000 0.85806  0.93381  0.68998  Biso   1.000  Zn  0.994022
  O81      1.0000 0.75650  0.92850  0.79240  Biso   1.000  O  -0.544389
  O82      1.0000 0.80310  0.88000  0.70080  Biso   1.000  O  -0.541625
  O83      1.0000 0.93170  0.89820  0.70460  Biso   1.000  O  -0.539593
  O84      1.0000 0.97140  0.06300  0.81000  Biso   1.000  O  -0.543979
  O85      1.0000 0.85610  0.95370  0.57920  Biso   1.000  O  -0.543257
  O86      1.0000 0.63550  0.15000  0.29400  Biso   1.000  O  -0.304323
  O87      1.0000 0.58070  0.22360  0.28200  Biso   1.000  O  -0.325407
  O88      1.0000 0.60750  0.36870  0.10590  Biso   1.000  O  -0.297408
  O89      1.0000 0.66340  0.35750  0.01000  Biso   1.000  O  -0.271347
  O90      1.0000 0.48360  0.84460  0.17300  Biso   1.000  O  -0.318338
  O91      1.0000 0.51850  0.79470  0.07900  Biso   1.000  O  -0.335323
  O92      1.0000 0.64870  0.96460  0.23600  Biso   1.000  O  -0.219641
  N45      1.0000 0.76190  0.10940  0.16680  Biso   1.000  N  -0.092958
  N46      1.0000 0.72010  0.13710  0.20040  Biso   1.000  N  -0.169570
  H133     1.0000 0.70560  0.12090  0.24020  Biso   1.000  H  0.279841
  N47      1.0000 0.62280  0.19690  0.26820  Biso   1.000  N  0.521644
  N48      1.0000 0.64220  0.34320  0.07000  Biso   1.000  N  0.521852
  N49      1.0000 0.61930  0.83500  0.93590  Biso   1.000  N  -0.211071
  N50      1.0000 0.58780  0.83610  0.00000  Biso   1.000  N  -0.191876
  H134     1.0000 0.56420  0.80900  0.00760  Biso   1.000  H  0.288167
  N51      1.0000 0.51700  0.83610  0.12270  Biso   1.000  N  0.522162
  C225     1.0000 0.76960  0.88590  0.75310  Biso   1.000  C  0.612961
  C226     1.0000 0.72740  0.83960  0.75550  Biso   1.000  C  -0.020269
  C227     1.0000 0.72240  0.79960  0.69670  Biso   1.000  C  -0.109000
  H135     1.0000 0.74660  0.80030  0.65550  Biso   1.000  H  0.124155
  C228     1.0000 0.68190  0.75860  0.69830  Biso   1.000  C  -0.112702
  H136     1.0000 0.67850  0.73130  0.65810  Biso   1.000  H  0.124195
  C229     1.0000 0.64640  0.75760  0.75860  Biso   1.000  C  0.049959
  C230     1.0000 0.65150  0.79760  0.81740  Biso   1.000  C  0.059371
  C231     1.0000 0.69190  0.83860  0.81590  Biso   1.000  C  -0.139281
  H137     1.0000 0.69540  0.86590  0.85610  Biso   1.000  H  0.124556
  C232     1.0000 0.86160  0.00820  0.96230  Biso   1.000  C  0.318319
  C233     1.0000 0.90267  0.98145  0.09670  Biso   1.000  C  -0.121334
  H138     1.0000 0.93340  0.96580  0.07320  Biso   1.000  H  0.123293
  C234     1.0000 0.90290  0.98585  0.17730  Biso   1.000  C  -0.147948
  H139     1.0000 0.93380  0.97320  0.20890  Biso   1.000  H  0.124333
  C235     1.0000 0.85780  0.00880  0.21180  Biso   1.000  C  -0.042162
  C236     1.0000 0.81263  0.02730  0.16570  Biso   1.000  C  0.037450
  C237     1.0000 0.81240  0.02294  0.08510  Biso   1.000  C  -0.088817
  H140     1.0000 0.78150  0.03560  0.05350  Biso   1.000  H  0.124311
  C238     1.0000 0.96960  0.90150  0.75840  Biso   1.000  C  0.652239
  C239     1.0000 0.01360  0.86380  0.75400  Biso   1.000  C  -0.011557
  C240     1.0000 0.05350  0.86205  0.81540  Biso   1.000  C  -0.119105
  H141     1.0000 0.05230  0.88830  0.85680  Biso   1.000  H  0.124552
  C241     1.0000 0.09493  0.82198  0.81610  Biso   1.000  C  -0.113246
  H142     1.0000 0.12220  0.82080  0.85800  Biso   1.000  H  0.124333
  C242     1.0000 0.59656  0.71639  0.75540  Biso   1.000  C  0.079878
  C243     1.0000 0.55670  0.71470  0.69410  Biso   1.000  C  -0.109000
  H143     1.0000 0.55780  0.74090  0.65260  Biso   1.000  H  0.124606
  C244     1.0000 0.01530  0.82540  0.69340  Biso   1.000  C  -0.112702
  H144     1.0000 0.98800  0.82650  0.65150  Biso   1.000  H  0.124367
  C245     1.0000 0.85720  0.95110  0.41970  Biso   1.000  C  -0.106153
  H145     1.0000 0.85970  0.91670  0.44750  Biso   1.000  H  0.124211
  C246     1.0000 0.85678  0.95080  0.33980  Biso   1.000  C  -0.201390
  H146     1.0000 0.85790  0.91600  0.31290  Biso   1.000  H  0.121617
  C247     1.0000 0.77312  0.06568  0.20320  Biso   1.000  C  -0.124504
  H147     1.0000 0.75790  0.05710  0.25140  Biso   1.000  H  0.100469
  C248     1.0000 0.69840  0.18990  0.17620  Biso   1.000  C  0.124254
  C249     1.0000 0.65880  0.22210  0.21030  Biso   1.000  C  0.014774
  C250     1.0000 0.64040  0.27170  0.17540  Biso   1.000  C  -0.302710
  H148     1.0000 0.61340  0.29370  0.19870  Biso   1.000  H  0.127532
  C251     1.0000 0.66170  0.28923  0.10620  Biso   1.000  C  0.065472
  C252     1.0000 0.70130  0.25708  0.07200  Biso   1.000  C  -0.177368
  H149     1.0000 0.71580  0.26910  0.02480  Biso   1.000  H  0.124109
  C253     1.0000 0.71970  0.20745  0.10700  Biso   1.000  C  -0.177054
  H150     1.0000 0.74670  0.18550  0.08360  Biso   1.000  H  0.124109
  C254     1.0000 0.62154  0.79216  0.88860  Biso   1.000  C  -0.037467
  H151     1.0000 0.60400  0.75790  0.90030  Biso   1.000  H  0.101169
  C255     1.0000 0.59370  0.87950  0.05190  Biso   1.000  C  0.109236
  C256     1.0000 0.55940  0.88010  0.11400  Biso   1.000  C  0.025488
  C257     1.0000 0.56760  0.91930  0.17280  Biso   1.000  C  -0.290576
  H152     1.0000 0.54410  0.91970  0.21500  Biso   1.000  H  0.121524
  C258     1.0000 0.61010  0.95800  0.17050  Biso   1.000  C  0.252122
  C259     1.0000 0.64440  0.95750  0.10880  Biso   1.000  C  -0.129975
  H153     1.0000 0.67350  0.98400  0.10720  Biso   1.000  H  0.164966
  C260     1.0000 0.63630  0.91820  0.04950  Biso   1.000  C  -0.189556
  H154     1.0000 0.65970  0.91790  0.00740  Biso   1.000  H  0.123939
  Zn12     1.0000 0.35806  0.43381  0.68998  Biso   1.000  Zn  0.994022
  O93      1.0000 0.25650  0.42850  0.79240  Biso   1.000  O  -0.544389
  O94      1.0000 0.30310  0.38000  0.70080  Biso   1.000  O  -0.541625
  O95      1.0000 0.43170  0.39820  0.70460  Biso   1.000  O  -0.539593
  O96      1.0000 0.47140  0.56300  0.81000  Biso   1.000  O  -0.543979
  O97      1.0000 0.35610  0.45370  0.57920  Biso   1.000  O  -0.543257
  O98      1.0000 0.13550  0.65000  0.29400  Biso   1.000  O  -0.304323
  O99      1.0000 0.08070  0.72360  0.28200  Biso   1.000  O  -0.325407
  O100     1.0000 0.10750  0.86870  0.10590  Biso   1.000  O  -0.297408
  O101     1.0000 0.16340  0.85750  0.01000  Biso   1.000  O  -0.271347
  O102     1.0000 0.98360  0.34460  0.17300  Biso   1.000  O  -0.318338
  O103     1.0000 0.01850  0.29470  0.07900  Biso   1.000  O  -0.335323
  O104     1.0000 0.14870  0.46460  0.23600  Biso   1.000  O  -0.219641
  N52      1.0000 0.26190  0.60940  0.16680  Biso   1.000  N  -0.092958
  N53      1.0000 0.22010  0.63710  0.20040  Biso   1.000  N  -0.169570
  H155     1.0000 0.20560  0.62090  0.24020  Biso   1.000  H  0.279841
  N54      1.0000 0.12280  0.69690  0.26820  Biso   1.000  N  0.521644
  N55      1.0000 0.14220  0.84320  0.07000  Biso   1.000  N  0.521852
  N56      1.0000 0.11930  0.33500  0.93590  Biso   1.000  N  -0.211071
  N57      1.0000 0.08780  0.33610  0.00000  Biso   1.000  N  -0.191876
  H156     1.0000 0.06420  0.30900  0.00760  Biso   1.000  H  0.288167
  N58      1.0000 0.01700  0.33610  0.12270  Biso   1.000  N  0.522162
  C261     1.0000 0.26960  0.38590  0.75310  Biso   1.000  C  0.612961
  C262     1.0000 0.22740  0.33960  0.75550  Biso   1.000  C  -0.020269
  C263     1.0000 0.22240  0.29960  0.69670  Biso   1.000  C  -0.109000
  H157     1.0000 0.24660  0.30030  0.65550  Biso   1.000  H  0.124155
  C264     1.0000 0.18190  0.25860  0.69830  Biso   1.000  C  -0.112702
  H158     1.0000 0.17850  0.23130  0.65810  Biso   1.000  H  0.124195
  C265     1.0000 0.14640  0.25760  0.75860  Biso   1.000  C  0.049959
  C266     1.0000 0.15150  0.29760  0.81740  Biso   1.000  C  0.059371
  C267     1.0000 0.19190  0.33860  0.81590  Biso   1.000  C  -0.139281
  H159     1.0000 0.19540  0.36590  0.85610  Biso   1.000  H  0.124556
  C268     1.0000 0.36160  0.50820  0.96230  Biso   1.000  C  0.318319
  C269     1.0000 0.40267  0.48145  0.09670  Biso   1.000  C  -0.121334
  H160     1.0000 0.43340  0.46580  0.07320  Biso   1.000  H  0.123293
  C270     1.0000 0.40290  0.48585  0.17730  Biso   1.000  C  -0.147948
  H161     1.0000 0.43380  0.47320  0.20890  Biso   1.000  H  0.124333
  C271     1.0000 0.35780  0.50880  0.21180  Biso   1.000  C  -0.042162
  C272     1.0000 0.31263  0.52730  0.16570  Biso   1.000  C  0.037450
  C273     1.0000 0.31240  0.52294  0.08510  Biso   1.000  C  -0.088817
  H162     1.0000 0.28150  0.53560  0.05350  Biso   1.000  H  0.124311
  C274     1.0000 0.46960  0.40150  0.75840  Biso   1.000  C  0.652239
  C275     1.0000 0.51360  0.36380  0.75400  Biso   1.000  C  -0.011557
  C276     1.0000 0.55350  0.36205  0.81540  Biso   1.000  C  -0.119105
  H163     1.0000 0.55230  0.38830  0.85680  Biso   1.000  H  0.124552
  C277     1.0000 0.59493  0.32198  0.81610  Biso   1.000  C  -0.113246
  H164     1.0000 0.62220  0.32080  0.85800  Biso   1.000  H  0.124333
  C278     1.0000 0.09656  0.21639  0.75540  Biso   1.000  C  0.079878
  C279     1.0000 0.05670  0.21470  0.69410  Biso   1.000  C  -0.109000
  H165     1.0000 0.05780  0.24090  0.65260  Biso   1.000  H  0.124606
  C280     1.0000 0.51530  0.32540  0.69340  Biso   1.000  C  -0.112702
  H166     1.0000 0.48800  0.32650  0.65150  Biso   1.000  H  0.124367
  C281     1.0000 0.35720  0.45110  0.41970  Biso   1.000  C  -0.106153
  H167     1.0000 0.35970  0.41670  0.44750  Biso   1.000  H  0.124211
  C282     1.0000 0.35678  0.45080  0.33980  Biso   1.000  C  -0.201390
  H168     1.0000 0.35790  0.41600  0.31290  Biso   1.000  H  0.121617
  C283     1.0000 0.27312  0.56568  0.20320  Biso   1.000  C  -0.124504
  H169     1.0000 0.25790  0.55710  0.25140  Biso   1.000  H  0.100469
  C284     1.0000 0.19840  0.68990  0.17620  Biso   1.000  C  0.124254
  C285     1.0000 0.15880  0.72210  0.21030  Biso   1.000  C  0.014774
  C286     1.0000 0.14040  0.77170  0.17540  Biso   1.000  C  -0.302710
  H170     1.0000 0.11340  0.79370  0.19870  Biso   1.000  H  0.127532
  C287     1.0000 0.16170  0.78923  0.10620  Biso   1.000  C  0.065472
  C288     1.0000 0.20130  0.75708  0.07200  Biso   1.000  C  -0.177368
  H171     1.0000 0.21580  0.76910  0.02480  Biso   1.000  H  0.124109
  C289     1.0000 0.21970  0.70745  0.10700  Biso   1.000  C  -0.177054
  H172     1.0000 0.24670  0.68550  0.08360  Biso   1.000  H  0.124109
  C290     1.0000 0.12154  0.29216  0.88860  Biso   1.000  C  -0.037467
  H173     1.0000 0.10400  0.25790  0.90030  Biso   1.000  H  0.101169
  C291     1.0000 0.09370  0.37950  0.05190  Biso   1.000  C  0.109236
  C292     1.0000 0.05940  0.38010  0.11400  Biso   1.000  C  0.025488
  C293     1.0000 0.06760  0.41930  0.17280  Biso   1.000  C  -0.290576
  H174     1.0000 0.04410  0.41970  0.21500  Biso   1.000  H  0.121524
  C294     1.0000 0.11010  0.45800  0.17050  Biso   1.000  C  0.252122
  C295     1.0000 0.14440  0.45750  0.10880  Biso   1.000  C  -0.129975
  H175     1.0000 0.17350  0.48400  0.10720  Biso   1.000  H  0.164966
  C296     1.0000 0.13630  0.41820  0.04950  Biso   1.000  C  -0.189556
  H176     1.0000 0.15970  0.41790  0.00740  Biso   1.000  H  0.123939
  Zn13     1.0000 0.92131  0.00000  0.82570  Biso   1.000  Zn  1.005365
  Zn14     1.0000 0.79141  0.00000  0.81409  Biso   1.000  Zn  1.032966
  O105     1.0000 0.85720  0.00000  0.75440  Biso   1.000  O  -1.003084
  O106     1.0000 0.90820  0.00000  0.93640  Biso   1.000  O  -0.365903
  O107     1.0000 0.81630  0.00000  0.92380  Biso   1.000  O  -0.365307
  O108     1.0000 0.57170  0.00000  0.27730  Biso   1.000  O  -0.307612
  N59      1.0000 0.61110  0.00000  0.23520  Biso   1.000  N  0.200105
  C297     1.0000 0.85750  0.00000  0.05060  Biso   1.000  C  -0.006149
  C298     1.0000 0.85690  0.00000  0.54720  Biso   1.000  C  0.623240
  C299     1.0000 0.85400  0.00000  0.45920  Biso   1.000  C  -0.012034
  C300     1.0000 0.85477  0.00000  0.29810  Biso   1.000  C  0.055267
  Zn15     1.0000 0.42131  0.50000  0.82570  Biso   1.000  Zn  1.005365
  Zn16     1.0000 0.29141  0.50000  0.81409  Biso   1.000  Zn  1.032966
  O109     1.0000 0.35720  0.50000  0.75440  Biso   1.000  O  -1.003084
  O110     1.0000 0.40820  0.50000  0.93640  Biso   1.000  O  -0.365903
  O111     1.0000 0.31630  0.50000  0.92380  Biso   1.000  O  -0.365307
  O112     1.0000 0.07170  0.50000  0.27730  Biso   1.000  O  -0.307612
  N60      1.0000 0.11110  0.50000  0.23520  Biso   1.000  N  0.200105
  C301     1.0000 0.35750  0.50000  0.05060  Biso   1.000  C  -0.006149
  C302     1.0000 0.35690  0.50000  0.54720  Biso   1.000  C  0.623240
  C303     1.0000 0.35400  0.50000  0.45920  Biso   1.000  C  -0.012034
  C304     1.0000 0.35477  0.50000  0.29810  Biso   1.000  C  0.055267
